
***************************************************************
*	Infineon	Technologies	AG
*	GUMMEL-POON	MODEL	IN	SPICE	2G6	SYNTAX
*	VALID	UP	TO	10	GHZ
*	>>>	BFP193	<<<
*	(C)	2016	Infineon	Technologies	AG
*	Version	3.1	March 2016
***************************************************************
*.OPTION TNOM=25, GMIN= 1.00e-15
*BFP193 C B E1 E2

.SUBCKT BFP193 11 22 31 32
CBEPAR 2 3 1.023E-012
CBCPAR 2 1 1.67E-013
CCEPAR 1 3 2.794E-013
LE    33 30 2.004E-010
LB    22 20 5.79E-010
LC   1 11  4.811E-010
CBEPCK 20 30  2.663E-014
CBCPCK 20 1  1.784E-014
CCEPCK 1 30  5.078E-015
LBI    20 2 7.03384E-010
LEI   30 3 3.26016E-010
*
RE1 33 31 1E-03
RE2 33 32 1E-03
*
Q1 1 2 3 M_BFP193
*
.MODEL 	M_BFP193	NPN(
+	TNOM=	25
+	IS	=	1.264E-016
+	BF	=	95.69
+	NF	=	0.9534
+	VAF	=	24
+	IKF	=	0.4339
+	ISE	=	5.313E-014
+	NE	=	1.935
+	BR	=	14.27
+	NR	=	1.429
+	VAR	=	3.874
+	IKR	=	0.03792
+	ISC	=	3.741E-017
+	NC	=	0.9437
+	RB	=	1.37
+	IRB	=	0.0009176
+	RBM	=	0.8324
+	RE	=	0.2085
+	RC	=	0.1194
+	XTB	=	1.303
+	EG	=	1.09
+	XTI	=	6.548
+	CJE	=	1.762E-012
+	VJE	=	0.8064
+	MJE	=	0.434
+	TF	=	1.635E-011
+	XTF	=	7.184
+	VTF	=	0.06635
+	ITF	=	0.1963
+	PTF	=	0.07041
+	CJC	=	8.907E-013
+	VJC	=	0.3925
+	MJC	=	0.2534
+	XCJC=	0.6394
+	TR	=	1.63E-008
+	CJS	=	0
+	MJS	=	0.99
+   VJS =   1
+	FC	=	0.6174
+	KF	=	8.931E-017
+	AF	=	1.512)
***************************************************************
*
*
.ENDS BFP193
