
***************************************************************
*	Infineon	Technologies	AG
*	GUMMEL-POON	MODEL	IN	SPICE	2G6	SYNTAX
*	VALID	UP	TO	6	GHZ
*	>>>	BFP196W	<<<
*	(C)	2016	Infineon	Technologies	AG
*	Version	2.2	March	2016
***************************************************************
*.OPTION TNOM=25, GMIN= 1.00e-12
*BFP196W C B E1 E2
.SUBCKT BFP196W 11 22 31 32
*
*
CBEPAR 2 3 1.2E-013
CBCPAR 2 1 7.844E-014
CCEPAR 1 3 3.498E-013
LE    33 30 1.015E-010
LB    22 20 4.236E-011
LC   1 11  2.817E-010
CBEPCK 20 30  1E-013
CBCPCK 20 1  9.69E-014
CCEPCK 1 30  8.868E-014
LBI    20 2 7.351E-010
LEI   30 3 1.754E-010
RE1 33 31 1E-03
RE2 33 32 1E-03
*
Q1 1 2 3 M_BFP196W
*
.MODEL 	M_BFP196W	NPN(
+	TNOM = 25
+	IS	=	8.079E-016
+	BF	=	116.3
+	NF	=	0.9936
+	VAF	=	32.47
+	IKF	=	0.436
+	ISE	=	8.832E-015
+	NE	=	1.845
+	BR	=	9.117
+	NR	=	1
+	VAR	=	3.152
+	IKR	=	0.4253
+	ISC	=	1.854E-014
+	NC	=	2
+	RB	=	2.151
+	IRB	=	0
+	RBM	=	0.4429
+	RE	=	0.1105
+	RC	=	0.629
+	XTB	=	1.303
+	EG	=	1.1
+	XTI	=	6.548
+	CJE	=	4.386E-012
+	VJE	=	0.8631
+	MJE	=	0.3378
+	TF	=	9E-012
+	XTF	=	12.99
+	VTF	=	1.823
+	ITF	=	0.3266
+	PTF	=	0.2043
+	CJC	=	1.45E-012
+	VJC	=	0.552
+	MJC	=	0.2504
+	XCJC	=	1
+	TR	=	1.456E-008
+	CJS	=	0
+	MJS	=	0.3753
+         VJS       =         0.783
+	FC	=	0.9999
+	KF	=	8.931E-017
+	AF	=	1.512)
***************************************************************
*
*
.ENDS BFP196W
