
***************************************************************
*	Infineon	Technologies	AG
*	GUMMEL-POON	MODEL	IN	SPICE	2G6	SYNTAX
*	VALID	UP	TO	6	GHZ
*	>>>	BFP196	<<<
*	(C)	2014	Infineon	Technologies	AG
*	Version	2.1	March	2014
***************************************************************
*.OPTION TNOM=25, GMIN= 1.00e-12
*BFP196 11 22 31 32
.SUBCKT BFP196 11 22 31 32
*
CBEPAR 2 3 7.236E-013
CBCPAR 2 1 5.761E-013
CCEPAR 1 3 1.43E-013
LE    33 30 2.471E-010
LB    22 20 3.37E-011
LC   11 1  4.631E-010
CBEPCK 20 30  1.5E-013
CBCPCK 20 1  3E-014
CCEPCK 1 30  1.832E-013
LBI    20 2 1.414E-009
LEI   30 3 2.766E-010
RE1 33 31 1E-03
RE2 33 32 1E-03
*
Q1 1 2 3 M_BFP196
*
.MODEL 	M_BFP196	NPN(
+	TNOM = 25
+	IS	=	9.366E-016
+	BF	=	107.7
+	NF	=	1
+	VAF	=	53.01
+	IKF	=	0.7147
+	ISE	=	6.616E-015
+	NE	=	1.888
+	BR	=	9.117
+	NR	=	1.013
+	VAR	=	4.377
+	IKR	=	0.001057
+	ISC	=	1.461E-014
+	NC	=	1.974
+	RB	=	5.303
+	IRB	=	2.424E-005
+	RBM	=	0.7806
+	RE	=	0.03041
+	RC	=	0.3741
+	XTB	=	0.8548
+	EG	=	1.111
+	XTI	=	9.516
+	CJE	=	3.916E-012
+	VJE	=	0.9
+	MJE	=	0.415
+	TF	=	1.553E-011
+	XTF	=	291.9
+	VTF	=	4
+	ITF	=	3.936
+	PTF	=	0.001
+	CJC	=	1E-012
+	VJC	=	0.6463
+	MJC	=	0.5166
+	XCJC	=	0.4567
+	TR	=	1E-009
+	CJS	=	0
+	MJS	=	0.4501
+         VJS       =         0.6
+	FC	=	0.509
+	KF	=	8.931E-017
+	AF	=	1.512)
***************************************************************
*
.ENDS BFP196
