
***************************************************************
*	Infineon	Technologies	AG
*	GUMMEL-POON	MODEL	IN	SPICE	2G6	SYNTAX
*	VALID	UP	TO	6	GHZ
*	>>>	BFP182W	<<<
*	(C)	2016	Infineon	Technologies	AG
*	Version	2.2	April	2016
***************************************************************
*.OPTION TNOM=25, GMIN= 1.00e-12
*BFP182W 11 22 31 32
.SUBCKT BFP182W 11 22 31 32
*
CBEPAR 2 3 1.845E-013
CBCPAR 2 1 1.214E-013
CCEPAR 1 3 2.612E-013
LE    33 30 5.704E-011
LB    22 20 3.238E-010
LC   11 1  1.528E-010
CBEPCK 20 30  4.385E-014
CBCPCK 20 1  5.938E-014
CCEPCK 1 30  7.835E-014
LBI    20 2 5.789E-010
LEI   30 3 2.496E-010
*
RE1 33 31 1E-03
RE2 33 32 1E-03
*
Q1 1 2 3 M_BFP182W
*
.MODEL 	M_BFP182W	NPN(
+	TNOM = 25
+	IS	=	1.385E-016
+	BF	=	116.3
+	NF	=	0.9927
+	VAF	=	59.54
+	IKF	=	0.1362
+	ISE	=	1.248E-015
+	NE	=	1.696
+	BR	=	12.93
+	NR	=	1.043
+	VAR	=	5.459
+	IKR	=	0.05998
+	ISC	=	4.797E-013
+	NC	=	1.7
+	RB	=	4.23122
+	IRB	=	0.0004044
+	RBM	=	2.86606
+	RE	=	0.1114
+	RC	=	0.2108
+	XTB	=	1.303
+	EG	=	1.11
+	XTI	=	6.548
+	CJE	=	6.822E-013
+	VJE	=	1.29
+	MJE	=	0.512
+	TF	=	1.61578E-011
+	XTF	=	42.7588
+	VTF	=	0.207506
+	ITF	=	0.0531166
+	PTF	=	2.186
+	CJC	=	2.333E-013
+	VJC	=	0.5457
+	MJC	=	0.303
+	XCJC	=	0.1928
+	TR	=	6.21733E-009
+	CJS	=	0
+	MJS	=	0
+         VJS       =         0.4215
+	FC	=	0.9999
+	KF	=	0
+	AF	=	1)
***************************************************************
*
*
.ENDS BFP182W
