***************************************************************
*	Infineon	Technologies	AG
*	GUMMEL-POON	MODEL	IN	SPICE	2G6	SYNTAX
*	VALID	UP	TO	6	GHZ
*	>>>	BFP183	<<<
*	(C)	2013	Infineon	Technologies	AG
*	Version	2.1	March	2014
***************************************************************
*.OPTION TNOM=25, GMIN= 1.00e-12
* BFP183 C B E1 E2
.SUBCKT BFP183 11 22 31 32
*
*
CBEPAR 2 3 		3.545E-013
CBCPAR 2 1 		2.832E-013
CCEPAR 1 3 		2.011E-013
LE    33 30 	1.026E-010
LB    22 20 	3.288E-010
LC    1 11  	5.596E-010
CBEPCK 20 30  	3.624E-014
CBCPCK 20 1  	2.731E-015
CCEPCK 1 30  	2.011E-013
LBI    20 2 	1.272E-009
LEI   30 3 		2.344E-010
*
*
RE1 33 31 1E-03
RE2 33 32 1E-03
*
Q1 1 2 3 M_BFP183
*
.MODEL 	M_BFP183	NPN(
+	TNOM = 25
+	IS	=	2.544E-016
+	BF	=	113.5
+	NF	=	1
+	VAF	=	63.03
+	IKF	=	0.1272
+	ISE	=	1.556E-015
+	NE	=	1.759
+	BR	=	5.978
+	NR	=	1.003
+	VAR	=	4.361
+	IKR	=	0.4623
+	ISC	=	1E-015
+	NC	=	1.473
+	RB	=	3.834
+	IRB	=	0
+	RBM	=	0.9
+	RE	=	0.2246
+	RC	=	3.279
+	XTB	=	1.303
+	EG	=	1.1
+	XTI	=	8.31
+	CJE	=	1.055E-012
+	VJE	=	0.9
+	MJE	=	0.415
+	TF	=	1.387E-011
+	XTF	=	31.05
+	VTF	=	3.031
+	ITF	=	0.3385
+	PTF	=	0.0003821
+	CJC	=	2.868E-013
+	VJC	=	0.612
+	MJC	=	0.4365
+	XCJC	=	0.8098
+	TR	=	6.038E-008
+	CJS	=	0
+	MJS	=	0.7041
+   VJS =   2.097
+	FC	=	0.9999
+	KF	=	8.931E-017
+	AF	=	1.512)
***************************************************************
*
.ENDS BFP183
