
***************************************************************
*	Infineon	Technologies	AG
*	GUMMEL-POON	MODEL	IN	SPICE	2G6	SYNTAX
*	VALID	UP	TO	6	GHZ
*	>>>	BFP193W	<<<
*	(C)	2016	Infineon	Technologies	AG
*	Version	2.2	March 2016
***************************************************************
*.OPTION TNOM=25, GMIN= 1.00e-15
*BFP193W C B E1 E2
.SUBCKT BFP193W 11 22 31 32
*
*
CBEPAR 2 3 5.305E-013
CBCPAR 2 1 3.725E-013
CCEPAR 1 3 3.333E-013
LE    33 30 3.217E-011
LB    22 20 3.73E-011
LC   1 11  2.011E-010
CBEPCK 20 30  2E-014
CBCPCK 20 1  4E-014
CCEPCK 1 30  6E-014
LBI    20 2 7.443E-010
LEI   30 3 3.388E-010
*
*
RE1 33 31 1E-03
RE2 33 32 1E-03
*
*
Q1 1 2 3 M_BFP193W
*
.MODEL 	M_BFP193W	NPN (
+	TNOM=   25
+	IS	=	4.669E-016
+	BF	=	126.1
+	NF	=	0.9936
+	VAF	=	64.55
+	IKF	=	0.6219
+	ISE	=	3.166E-015
+	NE	=	1.767
+	BR	=	9
+	NR	=	1.025
+	VAR	=	3.214
+	IKR	=	0.075
+	ISC	=	8E-015
+	NC	=	2
+	RB	=	2.885
+	IRB	=	0
+	RBM	=	0.8613
+	RE	=	0.2616
+	RC	=	3.134
+	XTB	=	1.303
+	EG	=	1.09
+	XTI	=	6.548
+	CJE	=	2.221E-012
+	VJE	=	0.8816
+	MJE	=	0.3741
+	TF	=	1.383E-011
+	XTF	=	179.9
+	VTF	=	3.031
+	ITF	=	2.081
+	PTF	=	0.0397
+	CJC	=	5.633E-013
+	VJC	=	0.5935
+	MJC	=	0.3526
+	XCJC=	1
+	TR	=	1.48E-008
+	CJS	=	0
+	MJS	=	0
+   VJS =   0.7597
+	FC	=	0.9999
+	KF	=	8.931E-017
+	AF	=	1)
***************************************************************
*
*
.ENDS BFP193W
