***************************************************************
*	Infineon	Technologies	AG
*	GUMMEL-POON	MODEL	IN	SPICE	2G6	SYNTAX
*	VALID	UP	TO	6	GHZ
*	>>>	BFP183W	<<<
*	(C)	2016	Infineon	Technologies	AG
*	Version	3.3	April	2016
***************************************************************
*.OPTION TNOM=25, GMIN= 1.00e-12
* BFP183W C B E1 E2
.SUBCKT BFP183W 11 22 31 32
*
*
CBEPAR 2 3 		4.752E-013
CBCPAR 2 1 		1.16E-013
CCEPAR 1 3 		3.745E-013
LE    33 30 	5.704E-011
LB    22 20 	3.238E-010
LC    1 11  	1.528E-010
CBEPCK 20 30  	4.385E-014
CBCPCK 20 1  	5.938E-014
CCEPCK 1 30  	1E-015
LBI    20 2 	5.789E-010
LEI   30 3 		2.496E-010
*
*
RE1 33 31 1E-03
RE2 33 32 1E-03
*
Q1 1 2 3 M_BFR183W
*
.MODEL 	M_BFR183W	NPN(
+	TNOM = 25
+	IS	=	4.0555E-016
+	BF	=	120.16
+	NF	=	1.013
+	VAF	=	69.8779
+	IKF	=	1.08187
+	ISE	=	3.85884E-015
+	NE	=	1.67
+	BR	=	9
+	NR	=	0.931634
+	VAR	=	3.337
+	IKR	=	0.1093
+	ISC	=	1.07227E-014
+	NC	=	1.76405
+	RB	=	2.47805
+	IRB	=	0
+	RBM	=	1.74561
+	RE	=	0.137736
+	RC	=	0.1525
+	XTB	=	1.303
+	EG	=	1.11
+	XTI	=	6.548
+	CJE	=	8.748E-013
+	VJE	=	1.196
+	MJE	=	0.6807
+	TF	=	1.40184E-011
+	XTF	=	16.6968
+	VTF	=	2.133
+	ITF	=	0.3481
+	PTF	=	0.07461
+	CJC	=	4.429E-013
+	VJC	=	0.6178
+	MJC	=	0.3175
+	XCJC	=	1
+	TR	=	1.7E-008
+	CJS	=	0
+	MJS	=	1
+   VJS =   1
+	FC	=	0.9999
+	KF	=	8.931E-017
+	AF	=	1.512)
***************************************************************
*
.ENDS BFP183W
