
***************************************************************
*	Infineon	Technologies	AG
*	GUMMEL-POON	MODEL	IN	SPICE	2G6	SYNTAX
*	VALID	UP	TO	12	GHZ
*	>>>	BFP410	<<<
*	(C)	2014	Infineon	Technologies	AG
*	Version	3.1	October 2014
***************************************************************
*.OPTION GMIN= 1.00e-12
*BFP410 111 22 31 32
.SUBCKT BFP410 111 22 31 32
*
CBEPAR 2 3 3.07788E-013
CBCPAR 2 10 6.2793E-014
CCEPAR 10 3 1.12531E-013
LEx    30 33 1.67697E-020
LBx    20 22 6.71048E-010
LCx    11 111 8.80072E-010
CBEPCK 20 30  6.219E-014
CBCPCK 11 20  7.843E-015
CCEPCK 11 30  6.427E-014
LB   2 20 3.23461E-010
LE   3 30 2.21759E-010
LC   10 11  2.45831E-010
*
RE1 33 31 1E-03
RE2 33 32 1E-03
*
RSub 4 30 260
Rcx 1 10 1
*
Diode_sub 4 1 M_Diode_sub
*
.MODEL M_Diode_sub D(
+	IS	=	6.662E-016
+	N	=	0.9692
+	RS	=	1380
+	CJO	=	4E-014)
*
Q1 1 2 3 4 M_BFP410
*
.MODEL 	M_BFP410	NPN(
+	TNOM	=	25
+	IS	=	1.899E-017
+	BF	=	105.8
+	NF	=	0.9951
+	VAF	=	55.11
+	IKF	=	0.4494
+	ISE	=	7.029E-014
+	NE	=	2.811
+	BR	=	43.41
+	NR	=	0.9714
+	VAR	=	3.56
+	IKR	=	0.002084
+	ISC	=	1.441E-018
+	NC	=	20.56
+	RB	=	13.87
+	IRB	=	0
+	RBM	=	7.073
+	RE	=	0.3799
+	RC	=	4.224
+	XTB	=	-0.1945
+	EG	=	1.11
+	XTI	=	5.65
+	CJE	=	2.2012E-013
+	VJE	=	0.16
+	MJE	=	0.0865484
+	TF	=	4.42467E-012
+	XTF	=	17.2841
+	VTF	=	5.80018
+	ITF	=	0.611742
+	PTF	=	3.535E-008
+	CJC	=	5.36125E-014
+	VJC	=	1.20092
+	MJC	=	0.15027
+	XCJC	=	0.7499
+	TR	=	1.396E-009
+	CJS	=	1.33653E-013
+	MJS	=	0.275519
+         VJS       =         0.78109
+	FC	=	0.5
+	KF	=	0
+	AF	=	1)
***************************************************************
*
*
.ENDS BFP410
