
***************************************************************
*	Infineon	Technologies	AG
*	GUMMEL-POON	MODEL	IN	SPICE	2G6	SYNTAX
*	VALID	UP	TO	12	GHZ
*	>>>	BFP620F	<<<
*	(C)	2014	Infineon	Technologies	AG
*	Version	2.1	Oktober 2014
***************************************************************
*.OPTION GMIN= 1.00e-12
*BFP620F 111 22 31 32
.SUBCKT BFP620F 111 22 31 32
*
CBEPAR 2 3 4.4739E-013
CBCPAR 2 10 4.27507E-014
CCEPAR 10 3 4.78735E-015
LEx    30 33 2.36732E-011
LBx    20 22 1.51076E-014
LCx    11 111 2.698E-014
CBEPCK 20 30  5.065E-014
CBCPCK 11 20  5E-015
CCEPCK 11 30  1.844E-014
LB   2 20 6.7218E-010
LE   3 30 2.38369E-010
LC   10 11  4.2493E-010
*
RE1 33 31 1E-03
RE2 33 32 1E-03
*
RSub 4 30 260
Rcx 1 10 0.98758
*
Diode_sub 4 1 M_Diode_sub
*
.MODEL M_Diode_sub D(
+	IS	=	4.72872E-015
+	N	=	1.00535
+	RS	=	1380
+	CJO	=	4E-014)
*
Q1 1 2 3 4 M_BFP620F
*
.MODEL 	M_BFP620F	NPN(
+	TNOM	=	25
+	IS	=	2.43538E-015
+	BF	=	1210.87
+	NF	=	1.00765
+	VAF	=	711
+	IKF	=	0.671822
+	ISE	=	2.10616E-014
+	NE	=	1.95899
+	BR	=	454.082
+	NR	=	1.00153
+	VAR	=	1.04564
+	IKR	=	0.00337819
+	ISC	=	3.2132E-016
+	NC	=	1.498
+	RB	=	21
+	IRB	=	0.0007035
+	RBM	=	10
+	RE	=	0.159079
+	RC	=	1.3582
+	XTB	=	-2.48
+	EG	=	1.1
+	XTI	=	0.808
+	CJE	=	1.97957E-014
+	VJE	=	0.365329
+	MJE	=	0.252139
+	TF	=	1.04936E-012
+	XTF	=	0.003926
+	VTF	=	1.517
+	ITF	=	1.38779
+	PTF	=	4.342E-017
+	CJC	=	1.64596E-013
+	VJC	=	0.715467
+	MJC	=	0.474119
+	XCJC	=	0.646
+	TR	=	4.595E-009
+	CJS	=	2.65932E-014
+	MJS	=	2.99989
+         VJS       =         0.4006
+	FC	=	0.815
+	KF	=	2.56E-011
+	AF	=	1.798)
***************************************************************
*
*
.ENDS BFP620F
