
***************************************************************
*	Infineon	Technologies	AG
*	GUMMEL-POON	MODEL	IN	SPICE	2G6	SYNTAX
*	VALID	UP	TO	6	GHZ
*	>>>	BFR181W	<<<
*	(C)	2013	Infineon	Technologies	AG
*	Version	2.1	September	2013
***************************************************************
*.OPTION TNOM=25, GMIN= 1.00e-12
*BFR181W 11 22 33
.SUBCKT BFR181W 11 22 33
*
CBEPAR 2 3 3.153E-013
CBCPAR 2 1 1.953E-013
CCEPAR 1 3 2.47E-013
LE    33 30 1.956E-010
LB    22 20 2.014E-010
LC    1 11  3.021E-010
CBEPCK 20 30  4.406E-014
CBCPCK 20 1  1E-015
CCEPCK 1 30  3.836E-014
LBI    20 2 5.35688E-010
LEI   30 3 6.16264E-010
*
Q1 1 2 3 M_BFR181W
*
.MODEL 	M_BFR181W	NPN(
+	TNOM = 25
+	IS	=	8.794E-017
+	BF	=	116.9
+	NF	=	1
+	VAF	=	68.1
+	IKF	=	0.08128
+	ISE	=	3.592E-016
+	NE	=	1.631
+	BR	=	16.5
+	NR	=	0.8776
+	VAR	=	6.876
+	IKR	=	0.2495
+	ISC	=	1.12E-017
+	NC	=	1.653
+	RB	=	8.87993
+	IRB	=	0
+	RBM	=	4.42095
+	RE	=	0.145
+	RC	=	0.7233
+	XTB	=	1.303
+	EG	=	1.11
+	XTI	=	6.548
+	CJE	=	1.481E-013
+	VJE	=	0.7691
+	MJE	=	1.041
+	TF	=	1.45588E-011
+	XTF	=	107.12
+	VTF	=	0.291204
+	ITF	=	0.00428039
+	PTF	=	0
+	CJC	=	1.529E-013
+	VJC	=	0.7546
+	MJC	=	0.3099
+	XCJC	=	1
+	TR	=	1.75281E-008
+	CJS	=	0
+	MJS	=	0
+    VJS   =    0.901
+	FC	=	0.1651
+	KF	=	0
+	AF	=	1)
***************************************************************
*
*
.ENDS BFR181W
