
***************************************************************
*	Infineon	Technologies	AG
*	GUMMEL-POON	MODEL	IN	SPICE	2G6	SYNTAX
*	VALID	UP	TO	6	GHZ
*	>>>	BFR182W	<<<
*	(C)	2016	Infineon	Technologies	AG
*	Version	2.2	April 2016
***************************************************************
*.OPTION TNOM=25, GMIN= 1.00e-12
*BFR182W C B E1 E2
.SUBCKT BFR182W 11 22 33
*
*
CBEPAR 2 3 2.24E-013
CBCPAR 2 1 2.169E-013
CCEPAR 1 3 2E-013
LE    33 30 1E-010
LB    22 20 8E-011
LC   1 11  3.371E-010
CBEPCK 20 30  4E-014
CBCPCK 1 20  4E-014
CCEPCK 30 1  8E-014
LBI    20 2 8.794E-010
LEI   30 3 8.613E-010
*
Q1 1 2 3 M_BFR182W
*
.MODEL 	M_BFR182W	NPN(
+	TNOM = 25
+	IS	=	1.767E-016
+	BF	=	122.6
+	NF	=	1
+	VAF	=	75.55
+	IKF	=	0.457
+	ISE	=	6.25E-016
+	NE	=	1.653
+	BR	=	11.89
+	NR	=	0.9968
+	VAR	=	2.837
+	IKR	=	0.07193
+	ISC	=	9.862E-015
+	NC	=	2.026
+	RB	=	10.93
+	IRB	=	9.65E-005
+	RBM	=	0.8371
+	RE	=	0.2053
+	RC	=	4
+	XTB	=	1.303
+	EG	=	1.11
+	XTI	=	6.548
+	CJE	=	6.488E-013
+	VJE	=	0.9
+	MJE	=	0.415
+	TF	=	1.346E-011
+	XTF	=	139.2
+	VTF	=	2.182
+	ITF	=	0.5642
+	PTF	=	0.1
+	CJC	=	2.167E-013
+	VJC	=	0.5482
+	MJC	=	0.3169
+	XCJC	=	0.788
+	TR	=	1.7E-008
+	CJS	=	0
+	MJS	=	1
+         VJS       =         1
+	FC	=	0.9999
+	KF	=	0
+	AF	=	1)
***************************************************************
*
*
.ENDS BFR182W
