
***************************************************************
*	Infineon	Technologies	AG
*	GUMMEL-POON	MODEL	IN	SPICE	2G6	SYNTAX
*	VALID	UP	TO	6	GHZ
*	>>>	BFR193F	<<<
*	(C)	2016	Infineon	Technologies	AG
*	Version	2.2	April 2016
***************************************************************
*.OPTION TNOM=25, GMIN= 1.00e-12
*BFR193F 11 22 33
.SUBCKT BFR193F 11 22 33
*
CBEPAR 2 3 2.737E-013
CBCPAR 2 1 2.594E-013
CCEPAR 1 3 3.745E-014
LEI    3 30 2.79522E-010
LBI    2 20 2.78624E-010
CBEPCK 20 30  3.15E-014
CBCPCK 1 20  9.466E-014
CCEPCK 1 30  2.664E-015
LB    22 20 9.11766E-011
LE   30 33 1.72174E-010
LC   1 11  1.95916E-010
*
Q1 1 2 3 M_BFR193F
*
.MODEL 	M_BFR193F	NPN(
+	TNOM = 25
+	IS	=	4.981E-016
+	BF	=	114
+	NF	=	1
+	VAF	=	56.06
+	IKF	=	0.4814
+	ISE	=	3.125E-015
+	NE	=	1.723
+	BR	=	11.16
+	NR	=	0.9901
+	VAR	=	3.941
+	IKR	=	0.07071
+	ISC	=	2.254E-014
+	NC	=	1.894
+	RB	=	1.22358
+	IRB	=	0.0001166
+	RBM	=	0.85
+	RE	=	0.493289
+	RC	=	1.377
+	XTB	=	1.303
+	EG	=	1.11
+	XTI	=	6.548
+	CJE	=	2.049E-012
+	VJE	=	0.8885
+	MJE	=	0.372
+	TF	=	1.552E-011
+	XTF	=	33.9
+	VTF	=	3.177
+	ITF	=	0.6292
+	PTF	=	1E-015
+	CJC	=	6.473E-013
+	VJC	=	0.5728
+	MJC	=	0.3598
+	XCJC	=	1
+	TR	=	5.53E-009
+	CJS	=	0
+	MJS	=	0
+         VJS       =         0.1
+	FC	=	0.9999
+	KF	=	0
+	AF	=	1)
***************************************************************
*
*
.ENDS BFR193F
