***************************************************************
*	Infineon	Technologies	AG
*	GUMMEL-POON	MODEL	IN	SPICE	2G6	SYNTAX
*	VALID	UP	TO	6	GHZ
*	>>>	BFR193W	<<<
*	(C)	2014	Infineon	Technologies	AG
*	Version	2.1	March 2014
***************************************************************
*.OPTION TNOM=25, GMIN= 1.00e-12
*BFR193W 11 22 33
.SUBCKT BFR193W 11 22 33
*
CBEPAR 2 3 5.631E-013
CBCPAR 2 1 1.951E-013
CCEPAR 1 3 2.672E-013
LE    33 30 1.321E-010
LB    22 20 1.799E-010
LC   1 11  4.115E-010
CBEPCK 20 30  7.019E-014
CBCPCK 1 20  1.127E-013
CCEPCK 30 1  1.608E-014
LBI    20 2 8.707E-010
LEI   30 3 7.404E-010
*
Q1 1 2 3 M_BFR193W
*
.MODEL 	M_BFR193W	NPN(
+	TNOM = 25
+	IS	=	4.786E-016
+	BF	=	120
+	NF	=	0.9942
+	VAF	=	50.17
+	IKF	=	0.5423
+	ISE	=	5.105E-015
+	NE	=	1.84
+	BR	=	8.857
+	NR	=	1.013
+	VAR	=	3.542
+	IKR	=	0.05596
+	ISC	=	3.304E-012
+	NC	=	13.24
+	RB	=	9.337
+	IRB	=	3.606E-005
+	RBM	=	0.8415
+	RE	=	0.1095
+	RC	=	1.707
+	XTB	=	1.303
+	EG	=	1.11
+	XTI	=	6.548
+	CJE	=	2.131E-012
+	VJE	=	0.9537
+	MJE	=	0.4469
+	TF	=	7.90231E-012
+	XTF	=	500
+	VTF	=	4.13692
+	ITF	=	5.28251
+	PTF	=	0.0695
+	CJC	=	8.04E-013
+	VJC	=	0.6315
+	MJC	=	0.3621
+	XCJC	=	0.848
+	TR	=	1.568E-008
+	CJS	=	0
+	MJS	=	0.1549
+         VJS       =         0.4556
+	FC	=	0.8585
+	KF	=	0
+	AF	=	1)
***************************************************************
*
.ENDS BFR193W
